L24/1726520/Chaves.dss
! ==========================================================
! CHAVES — geradas de UNSEMT (Line com Switch=Y)
! ==========================================================
! 37 chave(s) omitida(s): os dois PACs fora da rede de MT deste alimentador, o que criaria ilha flutuante — ex.: 427970876, 2604778101, 350896648
New Line.1813193128 Phases=3 Bus1=100_1813193170.1.2.3 Bus2=100_1813193169.1.2.3 Switch=Y r1=1e-4 x1=1e-4 r0=1e-4 x0=1e-4 normamps=9999
New Line.1829411612 Phases=1 Bus1=node_2151891391.1 Bus2=node_2151891392.1 Switch=Y r1=1e-4 x1=1e-4 r0=1e-4 x0=1e-4 normamps=9999
New Line.346680149 Phases=1 Bus1=node_541289118.1 Bus2=node_541289119.1 Switch=Y r1=1e-4 x1=1e-4 r0=1e-4 x0=1e-4 normamps=9999
New Line.1829412386 Phases=3 Bus1=node_2151893527.1.2.3 Bus2=node_2151893528.1.2.3 Switch=Y r1=1e-4 x1=1e-4 r0=1e-4 x0=1e-4 normamps=9999
New Line.1829412397 Phases=3 Bus1=node_2151893548.1.2.3 Bus2=node_2151893549.1.2.3 Switch=Y r1=1e-4 x1=1e-4 r0=1e-4 x0=1e-4 normamps=9999
New Line.349662296 Phases=1 Bus1=node_2151891061.1 Bus2=node_2151891062.1 Switch=Y r1=1e-4 x1=1e-4 r0=1e-4 x0=1e-4 normamps=9999
New Line.1813193140 Phases=3 Bus1=segm_1813193113.1.2.3 Bus2=100_1813193169.1.2.3 Switch=Y r1=1e-4 x1=1e-4 r0=1e-4 x0=1e-4 normamps=9999
New Line.2604778167 Phases=3 Bus1=100_2604778208.1.2.3 Bus2=100_2604778207.1.2.3 Switch=Y r1=1e-4 x1=1e-4 r0=1e-4 x0=1e-4 normamps=9999
New Line.2633742177 Phases=3 Bus1=node_2791430833.1.2.3 Bus2=node_2791430834.1.2.3 Switch=Y r1=1e-4 x1=1e-4 r0=1e-4 x0=1e-4 normamps=9999
New Line.2188880568 Phases=3 Bus1=node_2494850204.1.2.3 Bus2=node_2494850205.1.2.3 Switch=Y r1=1e-4 x1=1e-4 r0=1e-4 x0=1e-4 normamps=9999
New Line.346604795 Phases=3 Bus1=node_541008585.1.2.3 Bus2=node_541008586.1.2.3 Switch=Y r1=1e-4 x1=1e-4 r0=1e-4 x0=1e-4 normamps=9999
New Line.1425114458 Phases=3 Bus1=100_1425114471.1.2.3 Bus2=100_1425114470.1.2.3 Switch=Y r1=1e-4 x1=1e-4 r0=1e-4 x0=1e-4 normamps=9999
New Line.1438787068 Phases=1 Bus1=node_1735047804.2 Bus2=node_1735047805.2 Switch=Y r1=1e-4 x1=1e-4 r0=1e-4 x0=1e-4 normamps=9999
New Line.1369932158 Phases=1 Bus1=node_429848245.3 Bus2=node_1664590889.3 Switch=Y r1=1e-4 x1=1e-4 r0=1e-4 x0=1e-4 normamps=9999
New Line.346866350 Phases=3 Bus1=node_541668066.1.2.3 Bus2=node_541668067.1.2.3 Switch=Y r1=1e-4 x1=1e-4 r0=1e-4 x0=1e-4 normamps=9999
New Line.1140942179 Phases=3 Bus1=node_1410695909.1.2.3 Bus2=node_1410695910.1.2.3 Switch=Y r1=1e-4 x1=1e-4 r0=1e-4 x0=1e-4 normamps=9999
New Line.1042493052 Phases=3 Bus1=100_1042493088.1.2.3 Bus2=100_1042493087.1.2.3 Switch=Y r1=1e-4 x1=1e-4 r0=1e-4 x0=1e-4 normamps=9999
New Line.1473550590 Phases=3 Bus1=node_1780631722.1.2.3 Bus2=node_1780631723.1.2.3 Switch=Y r1=1e-4 x1=1e-4 r0=1e-4 x0=1e-4 normamps=9999
New Line.1445150340 Phases=1 Bus1=node_1741466574.1 Bus2=node_1741466575.1 Switch=Y r1=1e-4 x1=1e-4 r0=1e-4 x0=1e-4 normamps=9999
New Line.1548841538 Phases=1 Bus1=node_1868396787.1 Bus2=node_1868396788.1 Switch=Y r1=1e-4 x1=1e-4 r0=1e-4 x0=1e-4 normamps=9999
New Line.1566202177 Phases=1 Bus1=node_1885701590.1 Bus2=node_1885701591.1 Switch=Y r1=1e-4 x1=1e-4 r0=1e-4 x0=1e-4 normamps=9999
New Line.961688769 Phases=3 Bus1=segm_961688751.1.2.3 Bus2=100_961688804.1.2.3 Switch=Y r1=1e-4 x1=1e-4 r0=1e-4 x0=1e-4 normamps=9999
New Line.1140941908 Phases=3 Bus1=node_424517405.1.2.3 Bus2=node_1410696510.1.2.3 Switch=Y r1=1e-4 x1=1e-4 r0=1e-4 x0=1e-4 normamps=9999
New Line.1516877127 Phases=1 Bus1=node_1831434366.1 Bus2=node_1831434367.1 Switch=Y r1=1e-4 x1=1e-4 r0=1e-4 x0=1e-4 normamps=9999
New Line.1469411153 Phases=1 Bus1=node_1771829117.3 Bus2=node_1771829118.3 Switch=Y r1=1e-4 x1=1e-4 r0=1e-4 x0=1e-4 normamps=9999
New Line.1514356524 Phases=1 Bus1=node_1826225685.1 Bus2=node_1826225686.1 Switch=Y r1=1e-4 x1=1e-4 r0=1e-4 x0=1e-4 normamps=9999
New Line.1566202185 Phases=1 Bus1=node_1885701612.1 Bus2=node_1885701613.1 Switch=Y r1=1e-4 x1=1e-4 r0=1e-4 x0=1e-4 normamps=9999
New Line.1420176351 Phases=1 Bus1=node_1716879290.2 Bus2=node_1716879291.2 Switch=Y r1=1e-4 x1=1e-4 r0=1e-4 x0=1e-4 normamps=9999
New Line.346569145 Phases=3 Bus1=node_2757988715.1.2.3 Bus2=node_2757988716.1.2.3 Switch=Y r1=1e-4 x1=1e-4 r0=1e-4 x0=1e-4 normamps=9999
New Line.346680191 Phases=1 Bus1=node_541289232.2 Bus2=node_541289233.2 Switch=Y r1=1e-4 x1=1e-4 r0=1e-4 x0=1e-4 normamps=9999
New Line.346752548 Phases=1 Bus1=node_541434642.2 Bus2=node_541434643.2 Switch=Y r1=1e-4 x1=1e-4 r0=1e-4 x0=1e-4 normamps=9999
New Line.346569080 Phases=1 Bus1=node_540919534.3 Bus2=node_540919535.3 Switch=Y r1=1e-4 x1=1e-4 r0=1e-4 x0=1e-4 normamps=9999
New Line.346829520 Phases=3 Bus1=node_541632408.1.2.3 Bus2=node_541632409.1.2.3 Switch=Y r1=1e-4 x1=1e-4 r0=1e-4 x0=1e-4 normamps=9999
New Line.346445964 Phases=1 Bus1=node_540615617.2 Bus2=node_540615618.2 Switch=Y r1=1e-4 x1=1e-4 r0=1e-4 x0=1e-4 normamps=9999
New Line.346445981 Phases=1 Bus1=node_540615656.3 Bus2=node_540615657.3 Switch=Y r1=1e-4 x1=1e-4 r0=1e-4 x0=1e-4 normamps=9999
New Line.346752891 Phases=1 Bus1=node_541469879.3 Bus2=node_541469880.3 Switch=Y r1=1e-4 x1=1e-4 r0=1e-4 x0=1e-4 normamps=9999
New Line.346417136 Phases=3 Bus1=node_540566097.1.2.3 Bus2=node_540566098.1.2.3 Switch=Y r1=1e-4 x1=1e-4 r0=1e-4 x0=1e-4 normamps=9999
New Line.346607007 Phases=3 Bus1=node_541060433.1.2.3 Bus2=node_541060434.1.2.3 Switch=Y r1=1e-4 x1=1e-4 r0=1e-4 x0=1e-4 normamps=9999
New Line.346569086 Phases=1 Bus1=node_540919552.3 Bus2=node_540919553.3 Switch=Y r1=1e-4 x1=1e-4 r0=1e-4 x0=1e-4 normamps=9999
New Line.346445560 Phases=1 Bus1=node_540593077.2 Bus2=node_540593078.2 Switch=Y r1=1e-4 x1=1e-4 r0=1e-4 x0=1e-4 normamps=9999
New Line.346569092 Phases=1 Bus1=node_1650686853.3 Bus2=node_1650686854.3 Switch=Y r1=1e-4 x1=1e-4 r0=1e-4 x0=1e-4 normamps=9999
New Line.346897675 Phases=1 Bus1=node_541730485.2 Bus2=node_541730486.2 Switch=Y r1=1e-4 x1=1e-4 r0=1e-4 x0=1e-4 normamps=9999
New Line.346445958 Phases=1 Bus1=node_540615599.2 Bus2=node_540615600.2 Switch=Y r1=1e-4 x1=1e-4 r0=1e-4 x0=1e-4 normamps=9999
New Line.346446005 Phases=1 Bus1=node_540615730.2 Bus2=node_540615731.2 Switch=Y r1=1e-4 x1=1e-4 r0=1e-4 x0=1e-4 normamps=9999
New Line.346500818 Phases=1 Bus1=node_540734855.1 Bus2=node_540734856.1 Switch=Y r1=1e-4 x1=1e-4 r0=1e-4 x0=1e-4 normamps=9999
New Line.346569115 Phases=1 Bus1=node_540919627.3 Bus2=node_540919628.3 Switch=Y r1=1e-4 x1=1e-4 r0=1e-4 x0=1e-4 normamps=9999
New Line.346752897 Phases=1 Bus1=node_541469897.3 Bus2=node_541469898.3 Switch=Y r1=1e-4 x1=1e-4 r0=1e-4 x0=1e-4 normamps=9999
New Line.346898045 Phases=1 Bus1=node_541752939.1 Bus2=node_541752940.1 Switch=Y r1=1e-4 x1=1e-4 r0=1e-4 x0=1e-4 normamps=9999
New Line.346606919 Phases=1 Bus1=node_541060205.2 Bus2=node_541060206.2 Switch=Y r1=1e-4 x1=1e-4 r0=1e-4 x0=1e-4 normamps=9999
New Line.346752878 Phases=1 Bus1=node_541469840.1 Bus2=node_541469841.1 Switch=Y r1=1e-4 x1=1e-4 r0=1e-4 x0=1e-4 normamps=9999
New Line.346829530 Phases=1 Bus1=node_541632426.1 Bus2=node_541632427.1 Switch=Y r1=1e-4 x1=1e-4 r0=1e-4 x0=1e-4 normamps=9999
New Line.346898075 Phases=1 Bus1=node_541753017.2 Bus2=node_541753018.2 Switch=Y r1=1e-4 x1=1e-4 r0=1e-4 x0=1e-4 normamps=9999
New Line.346542937 Phases=1 Bus1=node_540871245.2 Bus2=node_540871246.2 Switch=Y r1=1e-4 x1=1e-4 r0=1e-4 x0=1e-4 normamps=9999
New Line.346606925 Phases=1 Bus1=node_541060223.3 Bus2=node_541060224.3 Switch=Y r1=1e-4 x1=1e-4 r0=1e-4 x0=1e-4 normamps=9999
New Line.346679731 Phases=3 Bus1=node_541240828.1.2.3 Bus2=node_541240829.1.2.3 Switch=Y r1=1e-4 x1=1e-4 r0=1e-4 x0=1e-4 normamps=9999
New Line.346569200 Phases=3 Bus1=node_540919824.1.2.3 Bus2=node_540919825.1.2.3 Switch=Y r1=1e-4 x1=1e-4 r0=1e-4 x0=1e-4 normamps=9999
New Line.346639080 Phases=3 Bus1=node_541099718.1.2.3 Bus2=node_541099719.1.2.3 Switch=Y r1=1e-4 x1=1e-4 r0=1e-4 x0=1e-4 normamps=9999
New Line.346539182 Phases=3 Bus1=node_540777446.1.2.3 Bus2=node_540777447.1.2.3 Switch=Y r1=1e-4 x1=1e-4 r0=1e-4 x0=1e-4 normamps=9999
New Line.346572943 Phases=3 Bus1=node_540966072.1.2.3 Bus2=node_540966073.1.2.3 Switch=Y r1=1e-4 x1=1e-4 r0=1e-4 x0=1e-4 normamps=9999
New Line.346415531 Phases=3 Bus1=node_540545721.1.2.3 Bus2=node_540545720.1.2.3 Switch=Y r1=1e-4 x1=1e-4 r0=1e-4 x0=1e-4 normamps=9999
New Line.346640381 Phases=3 Bus1=node_541140688.1.2.3 Bus2=node_541140689.1.2.3 Switch=Y r1=1e-4 x1=1e-4 r0=1e-4 x0=1e-4 normamps=9999
New Line.346788642 Phases=3 Bus1=node_541507796.1.2.3 Bus2=node_541507797.1.2.3 Switch=Y r1=1e-4 x1=1e-4 r0=1e-4 x0=1e-4 normamps=9999
New Line.346502418 Phases=1 Bus1=node_540738888.3 Bus2=node_540738889.3 Switch=Y r1=1e-4 x1=1e-4 r0=1e-4 x0=1e-4 normamps=9999
New Line.346717512 Phases=3 Bus1=node_541334224.1.2.3 Bus2=node_541334225.1.2.3 Switch=Y r1=1e-4 x1=1e-4 r0=1e-4 x0=1e-4 normamps=9999
New Line.346868121 Phases=3 Bus1=node_541701091.1.2.3 Bus2=node_541701092.1.2.3 Switch=Y r1=1e-4 x1=1e-4 r0=1e-4 x0=1e-4 normamps=9999
New Line.346570562 Phases=3 Bus1=node_540923267.1.2.3 Bus2=node_540923268.1.2.3 Switch=Y r1=1e-4 x1=1e-4 r0=1e-4 x0=1e-4 normamps=9999
New Line.346445929 Phases=3 Bus1=node_540615524.1.2.3 Bus2=node_540615525.1.2.3 Switch=Y r1=1e-4 x1=1e-4 r0=1e-4 x0=1e-4 normamps=9999
New Line.346790902 Phases=3 Bus1=node_541511689.1.2.3 Bus2=node_541511690.1.2.3 Switch=Y r1=1e-4 x1=1e-4 r0=1e-4 x0=1e-4 normamps=9999
New Line.346415833 Phases=3 Bus1=node_540563364.1.2.3 Bus2=node_540563365.1.2.3 Switch=Y r1=1e-4 x1=1e-4 r0=1e-4 x0=1e-4 normamps=9999
New Line.346718488 Phases=3 Bus1=node_541335870.1.2.3 Bus2=node_541335871.1.2.3 Switch=Y r1=1e-4 x1=1e-4 r0=1e-4 x0=1e-4 normamps=9999
New Line.346572373 Phases=3 Bus1=node_540965124.1.2.3 Bus2=node_540965125.1.2.3 Switch=Y r1=1e-4 x1=1e-4 r0=1e-4 x0=1e-4 normamps=9999
New Line.346679085 Phases=3 Bus1=node_541239556.1.2.3 Bus2=node_541239557.1.2.3 Switch=Y r1=1e-4 x1=1e-4 r0=1e-4 x0=1e-4 normamps=9999
New Line.346751273 Phases=1 Bus1=node_541431908.1 Bus2=node_541431909.1 Switch=Y r1=1e-4 x1=1e-4 r0=1e-4 x0=1e-4 normamps=9999
New Line.1697203590 Phases=1 Bus1=node_2022916549.1 Bus2=node_2022916550.1 Switch=Y r1=1e-4 x1=1e-4 r0=1e-4 x0=1e-4 normamps=9999
New Line.1709389971 Phases=1 Bus1=node_2035467685.2 Bus2=node_2035467920.2 Switch=Y r1=1e-4 x1=1e-4 r0=1e-4 x0=1e-4 normamps=9999
New Line.346641396 Phases=3 Bus1=node_541142361.1.2.3 Bus2=node_541142362.1.2.3 Switch=Y r1=1e-4 x1=1e-4 r0=1e-4 x0=1e-4 normamps=9999
New Line.346414705 Phases=3 Bus1=node_2873476123.1.2.3 Bus2=node_2873478858.1.2.3 Switch=Y r1=1e-4 x1=1e-4 r0=1e-4 x0=1e-4 normamps=9999
New Line.346415845 Phases=3 Bus1=node_540563382.1.2.3 Bus2=node_540563383.1.2.3 Switch=Y r1=1e-4 x1=1e-4 r0=1e-4 x0=1e-4 normamps=9999
New Line.346791035 Phases=3 Bus1=node_541511902.1.2.3 Bus2=node_541511903.1.2.3 Switch=Y r1=1e-4 x1=1e-4 r0=1e-4 x0=1e-4 normamps=9999
New Line.346641470 Phases=3 Bus1=node_541142494.1.2.3 Bus2=node_541142493.1.2.3 Switch=Y r1=1e-4 x1=1e-4 r0=1e-4 x0=1e-4 normamps=9999
New Line.346865590 Phases=3 Bus1=node_541666657.1.2.3 Bus2=node_541666658.1.2.3 Switch=Y r1=1e-4 x1=1e-4 r0=1e-4 x0=1e-4 normamps=9999
New Line.346866744 Phases=3 Bus1=node_541668714.1.2.3 Bus2=node_541668715.1.2.3 Switch=Y r1=1e-4 x1=1e-4 r0=1e-4 x0=1e-4 normamps=9999
New Line.2276824846 Phases=1 Bus1=node_2489696426.1 Bus2=node_2489696427.1 Switch=Y r1=1e-4 x1=1e-4 r0=1e-4 x0=1e-4 normamps=9999
New Line.346607250 Phases=1 Bus1=node_1971388431.3 Bus2=node_1971388500.3 Switch=Y r1=1e-4 x1=1e-4 r0=1e-4 x0=1e-4 normamps=9999
New Line.341215472 Phases=1 Bus1=node_534793049.2 Bus2=node_534793050.2 Switch=Y r1=1e-4 x1=1e-4 r0=1e-4 x0=1e-4 normamps=9999
New Line.346500808 Phases=3 Bus1=node_540734837.1.2.3 Bus2=node_540734838.1.2.3 Switch=Y r1=1e-4 x1=1e-4 r0=1e-4 x0=1e-4 normamps=9999
New Line.346680142 Phases=1 Bus1=node_541289097.2 Bus2=node_541289098.2 Switch=Y r1=1e-4 x1=1e-4 r0=1e-4 x0=1e-4 normamps=9999
New Line.346606913 Phases=1 Bus1=node_541060187.2 Bus2=node_541060188.2 Switch=Y r1=1e-4 x1=1e-4 r0=1e-4 x0=1e-4 normamps=9999
New Line.346606969 Phases=3 Bus1=node_541060331.1.2.3 Bus2=node_541060332.1.2.3 Switch=Y r1=1e-4 x1=1e-4 r0=1e-4 x0=1e-4 normamps=9999
New Line.346716427 Phases=3 Bus1=node_541332345.1.2.3 Bus2=node_541332346.1.2.3 Switch=Y r1=1e-4 x1=1e-4 r0=1e-4 x0=1e-4 normamps=9999
New Line.346445188 Phases=3 Bus1=node_540592258.1.2.3 Bus2=node_540592259.1.2.3 Switch=Y r1=1e-4 x1=1e-4 r0=1e-4 x0=1e-4 normamps=9999
New Line.340970527 Phases=3 Bus1=node_534498639.1.2.3 Bus2=node_534498640.1.2.3 Switch=Y r1=1e-4 x1=1e-4 r0=1e-4 x0=1e-4 normamps=9999
New Line.341842233 Phases=3 Bus1=node_535208102.1.2.3 Bus2=node_535208103.1.2.3 Switch=Y r1=1e-4 x1=1e-4 r0=1e-4 x0=1e-4 normamps=9999
New Line.346446495 Phases=3 Bus1=node_540616968.1.2.3 Bus2=node_540616969.1.2.3 Switch=Y r1=1e-4 x1=1e-4 r0=1e-4 x0=1e-4 normamps=9999
New Line.346539226 Phases=3 Bus1=node_540777521.1.2.3 Bus2=node_540777522.1.2.3 Switch=Y r1=1e-4 x1=1e-4 r0=1e-4 x0=1e-4 normamps=9999
New Line.346475670 Phases=3 Bus1=node_540666761.1.2.3 Bus2=node_540666762.1.2.3 Switch=Y r1=1e-4 x1=1e-4 r0=1e-4 x0=1e-4 normamps=9999
New Line.346573008 Phases=3 Bus1=node_540966183.1.2.3 Bus2=node_540966184.1.2.3 Switch=Y r1=1e-4 x1=1e-4 r0=1e-4 x0=1e-4 normamps=9999
New Line.427970844 Phases=3 Bus1=100_427971014.1.2.3 Bus2=segm_427970825.1.2.3 Switch=Y r1=1e-4 x1=1e-4 r0=1e-4 x0=1e-4 normamps=9999
New Line.427970831 Phases=3 Bus1=100_427971013.1.2.3 Bus2=segm_427970819.1.2.3 Switch=Y r1=1e-4 x1=1e-4 r0=1e-4 x0=1e-4 normamps=9999
New Line.350077684 Phases=1 Bus1=node_547241098.3 Bus2=node_547241099.3 Switch=Y r1=1e-4 x1=1e-4 r0=1e-4 x0=1e-4 normamps=9999
New Line.432998462 Phases=1 Bus1=node_701704234.2 Bus2=node_701704235.2 Switch=Y r1=1e-4 x1=1e-4 r0=1e-4 x0=1e-4 normamps=9999
New Line.427970869 Phases=3 Bus1=100_427971013.1.2.3 Bus2=100_427971014.1.2.3 Switch=Y r1=1e-4 x1=1e-4 r0=1e-4 x0=1e-4 normamps=9999
New Line.346866519 Phases=3 Bus1=node_541668346.1.2.3 Bus2=node_541668345.1.2.3 Switch=Y r1=1e-4 x1=1e-4 r0=1e-4 x0=1e-4 normamps=9999
New Line.430963150 Phases=3 Bus1=100_430963171.1.2.3 Bus2=segm_430963164.1.2.3 Switch=Y r1=1e-4 x1=1e-4 r0=1e-4 x0=1e-4 normamps=9999
New Line.430963157 Phases=3 Bus1=100_430963171.1.2.3 Bus2=100_430963170.1.2.3 Switch=Y r1=1e-4 x1=1e-4 r0=1e-4 x0=1e-4 normamps=9999
New Line.459604059 Phases=1 Bus1=node_729288833.2 Bus2=node_729288834.2 Switch=Y r1=1e-4 x1=1e-4 r0=1e-4 x0=1e-4 normamps=9999
New Line.430641035 Phases=3 Bus1=node_699256584.1.2.3 Bus2=node_699256585.1.2.3 Switch=Y r1=1e-4 x1=1e-4 r0=1e-4 x0=1e-4 normamps=9999
New Line.346417732 Phases=3 Bus1=node_540567357.1.2.3 Bus2=node_540567358.1.2.3 Switch=Y r1=1e-4 x1=1e-4 r0=1e-4 x0=1e-4 normamps=9999
New Line.346605801 Phases=3 Bus1=node_541057962.1.2.3 Bus2=node_541057963.1.2.3 Switch=Y r1=1e-4 x1=1e-4 r0=1e-4 x0=1e-4 normamps=9999
New Line.346718560 Phases=3 Bus1=node_1335142855.1.2.3 Bus2=node_1335143442.1.2.3 Switch=Y r1=1e-4 x1=1e-4 r0=1e-4 x0=1e-4 normamps=9999
New Line.350912061 Phases=3 Bus1=100_350912060.1.2.3 Bus2=100_350912039.1.2.3 Switch=Y r1=1e-4 x1=1e-4 r0=1e-4 x0=1e-4 normamps=9999
New Line.350912070 Phases=3 Bus1=100_350912060.1.2.3 Bus2=100_350912039.1.2.3 Switch=Y r1=1e-4 x1=1e-4 r0=1e-4 x0=1e-4 normamps=9999
New Line.346603113 Phases=3 Bus1=node_1308816380.1.2.3 Bus2=node_1335142951.1.2.3 Switch=Y r1=1e-4 x1=1e-4 r0=1e-4 x0=1e-4 normamps=9999
New Line.346415507 Phases=3 Bus1=node_540545676.1.2.3 Bus2=node_540545677.1.2.3 Switch=Y r1=1e-4 x1=1e-4 r0=1e-4 x0=1e-4 normamps=9999
New Line.556279157 Phases=1 Bus1=node_825298354.1 Bus2=node_825298355.1 Switch=Y r1=1e-4 x1=1e-4 r0=1e-4 x0=1e-4 normamps=9999
New Line.709416093 Phases=1 Bus1=node_982325662.1 Bus2=node_982325663.1 Switch=Y r1=1e-4 x1=1e-4 r0=1e-4 x0=1e-4 normamps=9999
New Line.350935782 Phases=3 Bus1=100_350935751.1.2.3 Bus2=100_350935772.1.2.3 Switch=Y r1=1e-4 x1=1e-4 r0=1e-4 x0=1e-4 normamps=9999
New Line.708527218 Phases=1 Bus1=node_981406692.3 Bus2=node_981406693.3 Switch=Y r1=1e-4 x1=1e-4 r0=1e-4 x0=1e-4 normamps=9999
New Line.708789172 Phases=1 Bus1=node_981664478.3 Bus2=node_981664479.3 Switch=Y r1=1e-4 x1=1e-4 r0=1e-4 x0=1e-4 normamps=9999
New Line.471880574 Phases=3 Bus1=100_471880580.1.2.3 Bus2=100_471880581.1.2.3 Switch=Y r1=1e-4 x1=1e-4 r0=1e-4 x0=1e-4 normamps=9999
New Line.1684571686 Phases=3 Bus1=node_2049129207.1.2.3 Bus2=node_2049129208.1.2.3 Switch=Y r1=1e-4 x1=1e-4 r0=1e-4 x0=1e-4 normamps=9999
New Line.1344404422 Phases=3 Bus1=100_1344404431.1.2.3 Bus2=100_1344404432.1.2.3 Switch=Y r1=1e-4 x1=1e-4 r0=1e-4 x0=1e-4 normamps=9999
New Line.2299011994 Phases=1 Bus1=node_2575227973.2 Bus2=node_2575227974.2 Switch=Y r1=1e-4 x1=1e-4 r0=1e-4 x0=1e-4 normamps=9999
New Line.2341063069 Phases=1 Bus1=node_2540150645.3 Bus2=node_2540150646.3 Switch=Y r1=1e-4 x1=1e-4 r0=1e-4 x0=1e-4 normamps=9999
New Line.346718182 Phases=3 Bus1=node_541335364.1.2.3 Bus2=node_541335365.1.2.3 Switch=Y r1=1e-4 x1=1e-4 r0=1e-4 x0=1e-4 normamps=9999
New Line.2435870343 Phases=1 Bus1=node_2606531198.2 Bus2=node_2606531199.2 Switch=Y r1=1e-4 x1=1e-4 r0=1e-4 x0=1e-4 normamps=9999
New Line.2573694783 Phases=3 Bus1=node_425350464.1.2.3 Bus2=node_2725491977.1.2.3 Switch=Y r1=1e-4 x1=1e-4 r0=1e-4 x0=1e-4 normamps=9999
New Line.2694755025 Phases=3 Bus1=node_2872497484.1.2.3 Bus2=node_2959239571.1.2.3 Switch=Y r1=1e-4 x1=1e-4 r0=1e-4 x0=1e-4 normamps=9999
New Line.2694754726 Phases=3 Bus1=100_2694754756.1.2.3 Bus2=100_2694754757.1.2.3 Switch=Y r1=1e-4 x1=1e-4 r0=1e-4 x0=1e-4 normamps=9999
New Line.2694753636 Phases=3 Bus1=node_2959235898.1.2.3 Bus2=node_2959235899.1.2.3 Switch=Y r1=1e-4 x1=1e-4 r0=1e-4 x0=1e-4 normamps=9999
New Line.2694752031 Phases=3 Bus1=node_2872497384.1.2.3 Bus2=node_2872498404.1.2.3 Switch=Y r1=1e-4 x1=1e-4 r0=1e-4 x0=1e-4 normamps=9999
New Line.2694752013 Phases=3 Bus1=node_2872498383.1.2.3 Bus2=node_2872498384.1.2.3 Switch=Y r1=1e-4 x1=1e-4 r0=1e-4 x0=1e-4 normamps=9999
New Line.2435870305 Phases=1 Bus1=node_2606531113.2 Bus2=node_2606531114.2 Switch=Y r1=1e-4 x1=1e-4 r0=1e-4 x0=1e-4 normamps=9999
New Line.2694754719 Phases=3 Bus1=100_2694754756.1.2.3 Bus2=100_2694754757.1.2.3 Switch=Y r1=1e-4 x1=1e-4 r0=1e-4 x0=1e-4 normamps=9999
New Line.2694754784 Phases=3 Bus1=100_2694754822.1.2.3 Bus2=100_2694754821.1.2.3 Switch=Y r1=1e-4 x1=1e-4 r0=1e-4 x0=1e-4 normamps=9999
New Line.2701540050 Phases=3 Bus1=node_2882596562.1.2.3 Bus2=node_2882596563.1.2.3 Switch=Y r1=1e-4 x1=1e-4 r0=1e-4 x0=1e-4 normamps=9999
New Line.2606175837 Phases=3 Bus1=node_2759469014.1.2.3 Bus2=node_2759469015.1.2.3 Switch=Y r1=1e-4 x1=1e-4 r0=1e-4 x0=1e-4 normamps=9999
New Line.2610447161 Phases=3 Bus1=node_2764047853.1.2.3 Bus2=node_2764047854.1.2.3 Switch=Y r1=1e-4 x1=1e-4 r0=1e-4 x0=1e-4 normamps=9999
New Line.346680155 Phases=3 Bus1=node_541289136.1.2.3 Bus2=node_541289137.1.2.3 Switch=Y r1=1e-4 x1=1e-4 r0=1e-4 x0=1e-4 normamps=9999
New Line.2694754791 Phases=3 Bus1=100_2694754822.1.2.3 Bus2=100_2694754821.1.2.3 Switch=Y r1=1e-4 x1=1e-4 r0=1e-4 x0=1e-4 normamps=9999
New Line.719361003 Phases=1 Bus1=node_992923249.1 Bus2=node_992923250.1 Switch=Y r1=1e-4 x1=1e-4 r0=1e-4 x0=1e-4 normamps=9999
New Line.346503599 Phases=3 Bus1=node_540775409.1.2.3 Bus2=node_540775408.1.2.3 Switch=Y r1=1e-4 x1=1e-4 r0=1e-4 x0=1e-4 normamps=9999
New Line.346790321 Phases=3 Bus1=node_541510739.1.2.3 Bus2=node_541510740.1.2.3 Switch=Y r1=1e-4 x1=1e-4 r0=1e-4 x0=1e-4 normamps=9999
New Line.346640146 Phases=3 Bus1=node_541140286.1.2.3 Bus2=node_541140285.1.2.3 Switch=Y r1=1e-4 x1=1e-4 r0=1e-4 x0=1e-4 normamps=9999
New Line.346867680 Phases=3 Bus1=node_541670327.1.2.3 Bus2=node_541670328.1.2.3 Switch=Y r1=1e-4 x1=1e-4 r0=1e-4 x0=1e-4 normamps=9999
New Line.346790382 Phases=3 Bus1=node_541510844.1.2.3 Bus2=node_541510845.1.2.3 Switch=Y r1=1e-4 x1=1e-4 r0=1e-4 x0=1e-4 normamps=9999
New Line.346474487 Phases=3 Bus1=node_540639029.1.2.3 Bus2=node_540639030.1.2.3 Switch=Y r1=1e-4 x1=1e-4 r0=1e-4 x0=1e-4 normamps=9999
New Line.346830491 Phases=3 Bus1=node_541634743.1.2.3 Bus2=node_541634744.1.2.3 Switch=Y r1=1e-4 x1=1e-4 r0=1e-4 x0=1e-4 normamps=9999
New Line.350912438 Phases=3 Bus1=100_350912428.1.2.3 Bus2=100_350912407.1.2.3 Switch=Y r1=1e-4 x1=1e-4 r0=1e-4 x0=1e-4 normamps=9999
New Line.350911586 Phases=3 Bus1=100_350911576.1.2.3 Bus2=100_350911555.1.2.3 Switch=Y r1=1e-4 x1=1e-4 r0=1e-4 x0=1e-4 normamps=9999
New Line.350911292 Phases=3 Bus1=100_350911261.1.2.3 Bus2=100_350911282.1.2.3 Switch=Y r1=1e-4 x1=1e-4 r0=1e-4 x0=1e-4 normamps=9999
New Line.350911630 Phases=3 Bus1=100_350911620.1.2.3 Bus2=100_350911599.1.2.3 Switch=Y r1=1e-4 x1=1e-4 r0=1e-4 x0=1e-4 normamps=9999
New Line.350911380 Phases=3 Bus1=100_350911370.1.2.3 Bus2=100_350911349.1.2.3 Switch=Y r1=1e-4 x1=1e-4 r0=1e-4 x0=1e-4 normamps=9999
New Line.350912026 Phases=3 Bus1=100_350912016.1.2.3 Bus2=100_350911995.1.2.3 Switch=Y r1=1e-4 x1=1e-4 r0=1e-4 x0=1e-4 normamps=9999
New Line.350911498 Phases=3 Bus1=100_350911488.1.2.3 Bus2=100_350911467.1.2.3 Switch=Y r1=1e-4 x1=1e-4 r0=1e-4 x0=1e-4 normamps=9999
New Line.346790345 Phases=3 Bus1=node_541510781.1.2.3 Bus2=node_541510782.1.2.3 Switch=Y r1=1e-4 x1=1e-4 r0=1e-4 x0=1e-4 normamps=9999
New Line.346415366 Phases=3 Bus1=node_540545447.1.2.3 Bus2=node_540545448.1.2.3 Switch=Y r1=1e-4 x1=1e-4 r0=1e-4 x0=1e-4 normamps=9999
New Line.346475521 Phases=3 Bus1=node_2714464857.1.2.3 Bus2=node_2808761998.1.2.3 Switch=Y r1=1e-4 x1=1e-4 r0=1e-4 x0=1e-4 normamps=9999
New Line.346717533 Phases=3 Bus1=node_541334263.1.2.3 Bus2=node_541334264.1.2.3 Switch=Y r1=1e-4 x1=1e-4 r0=1e-4 x0=1e-4 normamps=9999
New Line.346475052 Phases=3 Bus1=node_540639994.1.2.3 Bus2=node_540639995.1.2.3 Switch=Y r1=1e-4 x1=1e-4 r0=1e-4 x0=1e-4 normamps=9999
New Line.350912306 Phases=3 Bus1=100_350912275.1.2.3 Bus2=100_350912296.1.2.3 Switch=Y r1=1e-4 x1=1e-4 r0=1e-4 x0=1e-4 normamps=9999
New Line.350912350 Phases=3 Bus1=100_350912340.1.2.3 Bus2=100_350912319.1.2.3 Switch=Y r1=1e-4 x1=1e-4 r0=1e-4 x0=1e-4 normamps=9999
New Line.350935738 Phases=3 Bus1=100_350914237.1.2.3 Bus2=100_350914258.1.2.3 Switch=Y r1=1e-4 x1=1e-4 r0=1e-4 x0=1e-4 normamps=9999
New Line.350935930 Phases=3 Bus1=100_350935920.1.2.3 Bus2=100_350935899.1.2.3 Switch=Y r1=1e-4 x1=1e-4 r0=1e-4 x0=1e-4 normamps=9999
New Line.350913162 Phases=3 Bus1=100_350913131.1.2.3 Bus2=100_350913152.1.2.3 Switch=Y r1=1e-4 x1=1e-4 r0=1e-4 x0=1e-4 normamps=9999
New Line.350912394 Phases=3 Bus1=100_350912384.1.2.3 Bus2=100_350912363.1.2.3 Switch=Y r1=1e-4 x1=1e-4 r0=1e-4 x0=1e-4 normamps=9999
New Line.350912482 Phases=3 Bus1=100_350912472.1.2.3 Bus2=100_350912451.1.2.3 Switch=Y r1=1e-4 x1=1e-4 r0=1e-4 x0=1e-4 normamps=9999
New Line.350911542 Phases=3 Bus1=100_350911511.1.2.3 Bus2=100_350911532.1.2.3 Switch=Y r1=1e-4 x1=1e-4 r0=1e-4 x0=1e-4 normamps=9999
New Line.346865447 Phases=3 Bus1=node_541636299.1.2.3 Bus2=node_541636300.1.2.3 Switch=Y r1=1e-4 x1=1e-4 r0=1e-4 x0=1e-4 normamps=9999
New Line.346789878 Phases=3 Bus1=node_541509990.1.2.3 Bus2=node_541509991.1.2.3 Switch=Y r1=1e-4 x1=1e-4 r0=1e-4 x0=1e-4 normamps=9999
New Line.350911674 Phases=3 Bus1=100_350911643.1.2.3 Bus2=100_350911664.1.2.3 Switch=Y r1=1e-4 x1=1e-4 r0=1e-4 x0=1e-4 normamps=9999
New Line.346866656 Phases=3 Bus1=node_541668570.1.2.3 Bus2=node_541668571.1.2.3 Switch=Y r1=1e-4 x1=1e-4 r0=1e-4 x0=1e-4 normamps=9999
New Line.346718170 Phases=3 Bus1=node_541335346.1.2.3 Bus2=node_541335347.1.2.3 Switch=Y r1=1e-4 x1=1e-4 r0=1e-4 x0=1e-4 normamps=9999
New Line.346639909 Phases=3 Bus1=node_541139860.1.2.3 Bus2=node_541139859.1.2.3 Switch=Y r1=1e-4 x1=1e-4 r0=1e-4 x0=1e-4 normamps=9999
New Line.346474283 Phases=3 Bus1=node_425202407.1.2.3 Bus2=node_2082907758.1.2.3 Switch=Y r1=1e-4 x1=1e-4 r0=1e-4 x0=1e-4 normamps=9999
New Line.346503233 Phases=3 Bus1=node_540774768.1.2.3 Bus2=node_540774769.1.2.3 Switch=Y r1=1e-4 x1=1e-4 r0=1e-4 x0=1e-4 normamps=9999
New Line.346867105 Phases=3 Bus1=node_541669338.1.2.3 Bus2=node_541669337.1.2.3 Switch=Y r1=1e-4 x1=1e-4 r0=1e-4 x0=1e-4 normamps=9999
New Line.346718290 Phases=3 Bus1=node_541335548.1.2.3 Bus2=node_541335547.1.2.3 Switch=Y r1=1e-4 x1=1e-4 r0=1e-4 x0=1e-4 normamps=9999
New Line.346572336 Phases=3 Bus1=node_540965065.1.2.3 Bus2=node_540965066.1.2.3 Switch=Y r1=1e-4 x1=1e-4 r0=1e-4 x0=1e-4 normamps=9999
New Line.346212242 Phases=3 Bus1=node_540543200.1.2.3 Bus2=node_540543199.1.2.3 Switch=Y r1=1e-4 x1=1e-4 r0=1e-4 x0=1e-4 normamps=9999
New Line.346570986 Phases=3 Bus1=node_540962712.1.2.3 Bus2=node_540962711.1.2.3 Switch=Y r1=1e-4 x1=1e-4 r0=1e-4 x0=1e-4 normamps=9999
New Line.346789244 Phases=3 Bus1=node_541508893.1.2.3 Bus2=node_541508892.1.2.3 Switch=Y r1=1e-4 x1=1e-4 r0=1e-4 x0=1e-4 normamps=9999
New Line.346212253 Phases=3 Bus1=node_540543221.1.2.3 Bus2=node_540543220.1.2.3 Switch=Y r1=1e-4 x1=1e-4 r0=1e-4 x0=1e-4 normamps=9999
New Line.346716758 Phases=3 Bus1=node_541332936.1.2.3 Bus2=node_541332937.1.2.3 Switch=Y r1=1e-4 x1=1e-4 r0=1e-4 x0=1e-4 normamps=9999
New Line.346752271 Phases=3 Bus1=node_541433931.1.2.3 Bus2=node_541433932.1.2.3 Switch=Y r1=1e-4 x1=1e-4 r0=1e-4 x0=1e-4 normamps=9999
New Line.346475639 Phases=3 Bus1=node_540666704.1.2.3 Bus2=node_540666705.1.2.3 Switch=Y r1=1e-4 x1=1e-4 r0=1e-4 x0=1e-4 normamps=9999
New Line.346789900 Phases=3 Bus1=node_541510026.1.2.3 Bus2=node_541510027.1.2.3 Switch=Y r1=1e-4 x1=1e-4 r0=1e-4 x0=1e-4 normamps=9999
New Line.346641060 Phases=3 Bus1=node_541141823.1.2.3 Bus2=node_541141824.1.2.3 Switch=Y r1=1e-4 x1=1e-4 r0=1e-4 x0=1e-4 normamps=9999
New Line.346502362 Phases=3 Bus1=node_540738774.1.2.3 Bus2=node_540738775.1.2.3 Switch=Y r1=1e-4 x1=1e-4 r0=1e-4 x0=1e-4 normamps=9999
New Line.346718127 Phases=3 Bus1=node_541335271.1.2.3 Bus2=node_541335272.1.2.3 Switch=Y r1=1e-4 x1=1e-4 r0=1e-4 x0=1e-4 normamps=9999
New Line.341841853 Phases=1 Bus1=node_535207092.3 Bus2=node_535207093.3 Switch=Y r1=1e-4 x1=1e-4 r0=1e-4 x0=1e-4 normamps=9999
New Line.346571894 Phases=3 Bus1=node_540964297.1.2.3 Bus2=node_540964296.1.2.3 Switch=Y r1=1e-4 x1=1e-4 r0=1e-4 x0=1e-4 normamps=9999
New Line.346717545 Phases=3 Bus1=node_541334281.1.2.3 Bus2=node_541334282.1.2.3 Switch=Y r1=1e-4 x1=1e-4 r0=1e-4 x0=1e-4 normamps=9999
New Line.336286534 Phases=3 Bus1=node_531171909.1.2.3 Bus2=node_531171910.1.2.3 Switch=Y r1=1e-4 x1=1e-4 r0=1e-4 x0=1e-4 normamps=9999
New Line.340970424 Phases=3 Bus1=node_534498442.1.2.3 Bus2=node_534498443.1.2.3 Switch=Y r1=1e-4 x1=1e-4 r0=1e-4 x0=1e-4 normamps=9999
New Line.338405238 Phases=3 Bus1=node_533297796.1.2.3 Bus2=node_533297797.1.2.3 Switch=Y r1=1e-4 x1=1e-4 r0=1e-4 x0=1e-4 normamps=9999
New Line.346716747 Phases=3 Bus1=node_541332916.1.2.3 Bus2=node_541332915.1.2.3 Switch=Y r1=1e-4 x1=1e-4 r0=1e-4 x0=1e-4 normamps=9999
New Line.346640156 Phases=3 Bus1=node_541140303.1.2.3 Bus2=node_541140304.1.2.3 Switch=Y r1=1e-4 x1=1e-4 r0=1e-4 x0=1e-4 normamps=9999
New Line.346415240 Phases=3 Bus1=node_540545243.1.2.3 Bus2=node_540545244.1.2.3 Switch=Y r1=1e-4 x1=1e-4 r0=1e-4 x0=1e-4 normamps=9999
New Line.346718522 Phases=3 Bus1=node_541335930.1.2.3 Bus2=node_541335931.1.2.3 Switch=Y r1=1e-4 x1=1e-4 r0=1e-4 x0=1e-4 normamps=9999
...
